src/py_dss_interface/tests/cases/8500-Node/LineCodes.dss
// Line impedances defined by symmetrical component values

New Linecode.3-1/0C_2/0CN_T         nphases=3 r1=0.3489   x1=0.426198 r0=0.588811 x0=1.29612   c1=10.4308823411236  c0=4.48501282215346  units=km baseFreq=60 normamps=310  emergamps=310  faultrate=0.1 pctperm=20 repair=3 
New Linecode.1P_#8CU_#8N            nphases=3 r1=2.15622  x1=0.539412 r0=2.5511   x0=1.78041   c1=8.05740467479414  c0=4.52209592389387  units=km baseFreq=60 normamps=1    emergamps=1    faultrate=0.1 pctperm=20 repair=3 
New Linecode.2-2/0_4CN_T            nphases=3 r1=0.426882 x1=0.485726 r0=0.835309 x0=1.59581   c1=10.8078408238367  c0=4.46129873563277  units=km baseFreq=60 normamps=300  emergamps=300  faultrate=0.1 pctperm=20 repair=3 
New Linecode.2-2_2/0N_T             nphases=3 r1=0.849849 x1=0.500701 r0=1.14196  x0=1.46128   c1=10.1254640053302  c0=4.3998118759516   units=km baseFreq=60 normamps=200  emergamps=200  faultrate=0.1 pctperm=20 repair=3 
New Linecode.1-2/0_1000N_T          nphases=3 r1=0.426882 x1=0.550597 r0=0.52133  x0=1.17433   c1=9.26061604456887  c0=5.16343729290651  units=km baseFreq=60 normamps=300  emergamps=300  faultrate=0.1 pctperm=20 repair=3 
New Linecode.2-477_4CN_T            nphases=3 r1=0.12241  x1=0.365863 r0=0.530837 x0=1.47594   c1=12.1623554928442  c0=4.67621096045452  units=km baseFreq=60 normamps=700  emergamps=700  faultrate=0.1 pctperm=20 repair=3 
New Linecode.3-2/0_4CN_T            nphases=3 r1=0.426882 x1=0.485105 r0=0.840902 x0=1.58941   c1=10.8256396516392  c0=4.49689639123765  units=km baseFreq=60 normamps=300  emergamps=300  faultrate=0.1 pctperm=20 repair=3 
New Linecode.3-2_2/0N_T             nphases=3 r1=0.849849 x1=0.500017 r0=1.14568  x0=1.45165   c1=10.1411142414009  c0=4.43755812328823  units=km baseFreq=60 normamps=200  emergamps=200  faultrate=0.1 pctperm=20 repair=3 
New Linecode.1-4/0_T                nphases=3 r1=0.269675 x1=0.336162 r0=0.447512 x0=2.21009   c1=16.3589265064674  c0=5.53856549377411  units=km baseFreq=60 normamps=380  emergamps=380  faultrate=0.1 pctperm=20 repair=3 
New Linecode.1-795_T                nphases=3 r1=0.074565 x1=0.231088 r0=0.252401 x0=2.10502   c1=19.8652160060773  c0=5.89048359877414  units=km baseFreq=60 normamps=970  emergamps=970  faultrate=0.1 pctperm=20 repair=3 
New Linecode.3-2C_2CN_L             nphases=3 r1=0.543513 x1=0.444902 r0=0.874456 x0=1.48197   c1=9.84360060111448  c0=4.08861091055925  units=km baseFreq=60 normamps=220  emergamps=220  faultrate=0.1 pctperm=20 repair=3 
New Linecode.3-477_4CN_T            nphases=3 r1=0.12241  x1=0.365242 r0=0.53643  x0=1.4696    c1=12.1849289689394  c0=4.71544265392667  units=km baseFreq=60 normamps=700  emergamps=700  faultrate=0.1 pctperm=20 repair=3 
New Linecode.1-2C_2CN_T             nphases=3 r1=0.543513 x1=0.513315 r0=0.877687 x0=1.33819   c1=8.48184438219638  c0=4.77279148508746  units=km baseFreq=60 normamps=220  emergamps=220  faultrate=0.1 pctperm=20 repair=3 
New Linecode.3-1/0C_4/0CN_T         nphases=3 r1=0.381335 x1=0.426198 r0=0.567125 x0=1.26275   c1=10.4174072226085  c0=4.50087526481495  units=km baseFreq=60 normamps=310  emergamps=310  faultrate=0.1 pctperm=20 repair=3 
New Linecode.3-397_397N_OH          nphases=3 r1=0.145401 x1=0.38407  r0=0.305528 x0=1.13518   c1=11.4926580181373  c0=5.01855324304519  units=km baseFreq=60 normamps=630  emergamps=630  faultrate=0.1 pctperm=20 repair=3 
New Linecode.3-795_4/0N_L           nphases=3 r1=0.074627 x1=0.341816 r0=0.289683 x0=1.29655   c1=13.0304661299389  c0=4.61013513324754  units=km baseFreq=60 normamps=970  emergamps=970  faultrate=0.1 pctperm=20 repair=3 
New Linecode.1-4C_6N_T              nphases=3 r1=0.863706 x1=0.530775 r0=1.23299  x0=1.70771   c1=8.19273942806995  c0=4.66188701557625  units=km baseFreq=60 normamps=170  emergamps=170  faultrate=0.1 pctperm=20 repair=3 
New Linecode.1P_1/0ACSR_#2N         nphases=3 r1=0.535622 x1=0.534317 r0=0.944981 x0=1.50813   c1=9.63526678060719  c0=5.06964197977769  units=km baseFreq=60 normamps=301  emergamps=301  faultrate=0.1 pctperm=20 repair=3 
New Linecode.1-2/0_4CN_T            nphases=3 r1=0.426882 x1=0.550597 r0=0.818159 x0=1.4898    c1=9.26061604456887  c0=4.99168258348651  units=km baseFreq=60 normamps=300  emergamps=300  faultrate=0.1 pctperm=20 repair=3 
New Linecode.1-2_2/0N_T             nphases=3 r1=0.849849 x1=0.56551  r0=1.13071  x0=1.36515   c1=8.75511341948516  c0=4.90417389060981  units=km baseFreq=60 normamps=200  emergamps=200  faultrate=0.1 pctperm=20 repair=3 
New Linecode.3-1/0_795N_T           nphases=3 r1=0.535622 x1=0.495233 r0=0.638583 x0=1.27275   c1=10.5864828238198  c0=4.60880884205511  units=km baseFreq=60 normamps=260  emergamps=260  faultrate=0.1 pctperm=20 repair=3 
New Linecode.3-2C_2CN_H             nphases=3 r1=0.543513 x1=0.488211 r0=0.901672 x0=1.33638   c1=8.93493197935516  c0=4.77345463068367  units=km baseFreq=60 normamps=220  emergamps=220  faultrate=0.1 pctperm=20 repair=3 
New Linecode.3-1/0C_1/0CN_L         nphases=3 r1=0.3489   x1=0.423216 r0=0.610808 x0=1.38665   c1=10.506693145683   c0=4.22047078091088  units=km baseFreq=60 normamps=310  emergamps=310  faultrate=0.1 pctperm=20 repair=3 
New Linecode.2-2C_2CN_H             nphases=3 r1=0.543513 x1=0.465283 r0=0.903784 x0=1.37777   c1=9.39446535170916  c0=4.55228231143363  units=km baseFreq=60 normamps=220  emergamps=220  faultrate=0.1 pctperm=20 repair=3 
New Linecode.2-477_350CN_T          nphases=3 r1=0.12241  x1=0.365863 r0=0.247865 x0=1.18471   c1=12.1623554928442  c0=4.79374688592789  units=km baseFreq=60 normamps=700  emergamps=700  faultrate=0.1 pctperm=20 repair=3 
New Linecode.3-2C_2CN_T             nphases=3 r1=0.543513 x1=0.447884 r0=0.896887 x0=1.42735   c1=9.77585364700503  c0=4.32150764395039  units=km baseFreq=60 normamps=220  emergamps=220  faultrate=0.1 pctperm=20 repair=3 
New Linecode.3-1/0C_1/0CN_H         nphases=3 r1=0.3489   x1=0.466588 r0=0.630816 x0=1.23087   c1=9.47770338694622  c0=4.96398962338852  units=km baseFreq=60 normamps=310  emergamps=310  faultrate=0.1 pctperm=20 repair=3 
New Linecode.3-2C_2CN_V             nphases=3 r1=0.543513 x1=0.460995 r0=0.866192 x0=1.46799   c1=9.48510409179999  c0=4.1650848607149   units=km baseFreq=60 normamps=220  emergamps=220  faultrate=0.1 pctperm=20 repair=3 
New Linecode.3-795_397N_OH          nphases=3 r1=0.074627 x1=0.360582 r0=0.234692 x0=1.11157   c1=12.3136587920769  c0=5.16887508679549  units=km baseFreq=60 normamps=970  emergamps=970  faultrate=0.1 pctperm=20 repair=3 
New Linecode.2-2C_2CN_T             nphases=3 r1=0.543513 x1=0.448506 r0=0.892165 x0=1.4363    c1=9.76152970212676  c0=4.28789942513415  units=km baseFreq=60 normamps=220  emergamps=220  faultrate=0.1 pctperm=20 repair=3 
New Linecode.3P_266ACSR_2/0N        nphases=3 r1=0.213814 x1=0.389786 r0=0.513128 x0=1.28972   c1=11.2154366330951  c0=4.99300887467894  units=km baseFreq=60 normamps=566  emergamps=566  faultrate=0.1 pctperm=20 repair=3 
New Linecode.3P_477ACSR_2/0N        nphases=3 r1=0.119925 x1=0.367914 r0=0.419177 x0=1.26778   c1=11.9119782415368  c0=5.1263541911661   units=km baseFreq=60 normamps=818  emergamps=818  faultrate=0.1 pctperm=20 repair=3 
New Linecode.3-795_397N_3PH         nphases=3 r1=0.074565 x1=0.344769 r0=0.234048 x0=1.149656  c1=12.8970200153211  c0=4.95135006832464  units=km baseFreq=60 normamps=970  emergamps=970  faultrate=0.1 pctperm=20 repair=3 
New Linecode.2-2C_2CN_V             nphases=3 r1=0.543513 x1=0.460995 r0=0.866192 x0=1.46799   c1=9.48510409179999  c0=4.1650848607149   units=km baseFreq=60 normamps=220  emergamps=220  faultrate=0.1 pctperm=20 repair=3 
New Linecode.1-1/0A_2N_T            nphases=3 r1=0.535622 x1=0.560725 r0=0.914472 x0=1.49956   c1=9.08509466816236  c0=4.97505089193341  units=km baseFreq=60 normamps=260  emergamps=260  faultrate=0.1 pctperm=20 repair=3 
New Linecode.1-1/0C_397A_T          nphases=3 r1=0.3489   x1=0.491629 r0=0.502689 x0=1.15743   c1=8.97021132507386  c0=5.02136498037315  units=km baseFreq=60 normamps=310  emergamps=310  faultrate=0.1 pctperm=20 repair=3 
New Linecode.3-250C_2/0N_T          nphases=3 r1=0.146022 x1=0.385934 r0=0.441733 x0=1.33763   c1=11.4834535572618  c0=4.67671495110765  units=km baseFreq=60 normamps=540  emergamps=540  faultrate=0.1 pctperm=20 repair=3 
New Linecode.2-4/0_350CN_T          nphases=3 r1=0.269675 x1=0.450494 r0=0.39513  x0=1.26927   c1=11.3149880499991  c0=4.65626354092034  units=km baseFreq=60 normamps=380  emergamps=380  faultrate=0.1 pctperm=20 repair=3 
New Linecode.1-1/0A_2/0N_T          nphases=3 r1=0.535622 x1=0.560725 r0=0.816482 x0=1.36037   c1=9.08509466816236  c0=5.00587389924554  units=km baseFreq=60 normamps=260  emergamps=260  faultrate=0.1 pctperm=20 repair=3 
New Linecode.2-2/0_350CN_T          nphases=3 r1=0.426882 x1=0.485726 r0=0.552337 x0=1.30457   c1=10.8078408238367  c0=4.56809170244743  units=km baseFreq=60 normamps=300  emergamps=300  faultrate=0.1 pctperm=20 repair=3 
New Linecode.3P_1/0CU_#2N           nphases=3 r1=0.344923 x1=0.440117 r0=0.706002 x0=1.36913   c1=10.0837654102402  c0=4.71329406219493  units=km baseFreq=60 normamps=405  emergamps=405  faultrate=0.1 pctperm=20 repair=3 
New Linecode.2-1/0_4/0N_T           nphases=3 r1=0.535622 x1=0.495854 r0=0.775347 x0=1.36472   c1=10.5693206157897  c0=4.50249334006972  units=km baseFreq=60 normamps=260  emergamps=260  faultrate=0.1 pctperm=20 repair=3 
New Linecode.1-6C_8CN_T             nphases=3 r1=1.37391  x1=0.548298 r0=1.74208  x0=1.72847   c1=7.92209644734218  c0=4.54665883677772  units=km baseFreq=60 normamps=120  emergamps=120  faultrate=0.1 pctperm=20 repair=3 
New Linecode.3-1/0_4/0N_T           nphases=3 r1=0.535622 x1=0.495233 r0=0.778205 x0=1.35316   c1=10.5864828238198  c0=4.54286564396736  units=km baseFreq=60 normamps=260  emergamps=260  faultrate=0.1 pctperm=20 repair=3 
New Linecode.2-4_1000N_T            nphases=3 r1=1.3513   x1=0.49747  r0=1.44655  x0=1.26915   c1=9.71142242087667  c0=4.40888370770784  units=km baseFreq=60 normamps=150  emergamps=150  faultrate=0.1 pctperm=20 repair=3 
New Linecode.2-2/0_1000CN_T         nphases=3 r1=0.426882 x1=0.485726 r0=0.49921  x0=1.26803   c1=10.8078408238367  c0=4.62164734079785  units=km baseFreq=60 normamps=300  emergamps=300  faultrate=0.1 pctperm=20 repair=3 
New Linecode.1-1/0A_4/0N_T          nphases=3 r1=0.535622 x1=0.560725 r0=0.766524 x0=1.27456   c1=9.08509466816236  c0=5.02828822039764  units=km baseFreq=60 normamps=260  emergamps=260  faultrate=0.1 pctperm=20 repair=3 
New Linecode.3-4/0_4/0N_OH          nphases=3 r1=0.269675 x1=0.465593 r0=0.49778  x0=1.29997   c1=10.8696459934041  c0=4.85770064722698  units=km baseFreq=60 normamps=380  emergamps=380  faultrate=0.1 pctperm=20 repair=3 
New Linecode.2-4_1/0N_T             nphases=3 r1=1.35136  x1=0.562279 r0=1.6672   x0=1.39908   c1=8.4430901535535   c0=4.79472834141029  units=km baseFreq=60 normamps=150  emergamps=150  faultrate=0.1 pctperm=20 repair=3 
New Linecode.3-4_1000N_T            nphases=3 r1=1.3513   x1=0.496786 r0=1.44686  x0=1.25536   c1=9.72577289157878  c0=4.45105976762719  units=km baseFreq=60 normamps=150  emergamps=150  faultrate=0.1 pctperm=20 repair=3 
New Linecode.3-6C_8CN_T             nphases=3 r1=1.37391  x1=0.482805 r0=1.76003  x0=1.84833   c1=9.0400803450912   c0=4.12736513920212  units=km baseFreq=60 normamps=120  emergamps=120  faultrate=0.1 pctperm=20 repair=3 
New Linecode.2-2/0_2CN_T            nphases=3 r1=0.426882 x1=0.485726 r0=0.775658 x0=1.47364   c1=10.8078408238367  c0=4.478434417839    units=km baseFreq=60 normamps=300  emergamps=300  faultrate=0.1 pctperm=20 repair=3 
New Linecode.2-4/0_1000CN_T         nphases=3 r1=0.269675 x1=0.450494 r0=0.342003 x0=1.23274   c1=11.3149880499991  c0=4.71199429682635  units=km baseFreq=60 normamps=380  emergamps=380  faultrate=0.1 pctperm=20 repair=3 
New Linecode.3-1/0C_4N_T            nphases=3 r1=0.381335 x1=0.426198 r0=0.796349 x0=1.71163   c1=10.4174072226085  c0=4.4370010809874   units=km baseFreq=60 normamps=310  emergamps=310  faultrate=0.1 pctperm=20 repair=3 
New Linecode.2-795_2N_T             nphases=3 r1=0.074565 x1=0.34542  r0=0.469819 x0=1.45494   c1=12.8882346624624  c0=4.81796496310171  units=km baseFreq=60 normamps=970  emergamps=970  faultrate=0.1 pctperm=20 repair=3 
New Linecode.2-6C_8CN_T             nphases=3 r1=1.37391  x1=0.54662  r0=1.76575  x0=1.71722   c1=7.94713682505531  c0=4.78252646243991  units=km baseFreq=60 normamps=120  emergamps=120  faultrate=0.1 pctperm=20 repair=3 
New Linecode.3-4_1/0N_T             nphases=3 r1=1.35136  x1=0.483675 r0=1.68615  x0=1.51198   c1=10.030342401009   c0=4.24108134604128  units=km baseFreq=60 normamps=150  emergamps=150  faultrate=0.1 pctperm=20 repair=3 
New Linecode.1-397_350CN_T          nphases=3 r1=0.145401 x1=0.433779 r0=0.268557 x0=1.10157   c1=10.116392173574   c0=5.35596172240001  units=km baseFreq=60 normamps=630  emergamps=630  faultrate=0.1 pctperm=20 repair=3 
New Linecode.2-477_2CN_T            nphases=3 r1=0.12241  x1=0.365863 r0=0.471186 x0=1.35384   c1=12.1623554928442  c0=4.69517692450631  units=km baseFreq=60 normamps=700  emergamps=700  faultrate=0.1 pctperm=20 repair=3 
New Linecode.3-2/0_2CN_T            nphases=3 r1=0.426882 x1=0.485105 r0=0.78038  x0=1.46476   c1=10.8256396516392  c0=4.51517268386937  units=km baseFreq=60 normamps=300  emergamps=300  faultrate=0.1 pctperm=20 repair=3 
New Linecode.3P_2/0CU_#2N           nphases=3 r1=0.273403 x1=0.431169 r0=0.634482 x0=1.36031   c1=10.3039562740078  c0=4.7610935967702   units=km baseFreq=60 normamps=469  emergamps=469  faultrate=0.1 pctperm=20 repair=3 
New Linecode.2-6C_8CN_V             nphases=3 r1=1.37391  x1=0.495916 r0=1.73126  x0=1.83988   c1=8.79087023003314  c0=3.99614188862285  units=km baseFreq=60 normamps=120  emergamps=120  faultrate=0.1 pctperm=20 repair=3 
New Linecode.3-795_2N_T             nphases=3 r1=0.074565 x1=0.344799 r0=0.4751   x0=1.44848   c1=12.9136198758856  c0=4.86146731421349  units=km baseFreq=60 normamps=970  emergamps=970  faultrate=0.1 pctperm=20 repair=3 
New Linecode.1-4_1000N_T            nphases=3 r1=0.535622 x1=0.560725 r0=0.63007  x0=1.18446   c1=9.08509466816236  c0=5.10839620842057  units=km baseFreq=60 normamps=260  emergamps=260  faultrate=0.1 pctperm=20 repair=3 
New Linecode.3-4/0C_1/0CN_V         nphases=3 r1=0.174481 x1=0.409111 r0=0.4303   x0=1.34558   c1=10.8079999787798  c0=4.4223853520468   units=km baseFreq=60 normamps=480  emergamps=480  faultrate=0.1 pctperm=20 repair=3 
New Linecode.1-1/0C_4N_T            nphases=3 r1=0.3489   x1=0.491629 r0=0.748193 x0=1.55778   c1=8.97021132507386  c0=4.92146872775913  units=km baseFreq=60 normamps=310  emergamps=310  faultrate=0.1 pctperm=20 repair=3 
New Linecode.3-2/0C_1/0CN_T         nphases=3 r1=0.276821 x1=0.417499 r0=0.555071 x0=1.31495   c1=10.6652645206502  c0=4.51700296571493  units=km baseFreq=60 normamps=360  emergamps=360  faultrate=0.1 pctperm=20 repair=3 
New Linecode.3-477_2CN_T            nphases=3 r1=0.12241  x1=0.365242 r0=0.475908 x0=1.3449    c1=12.1849289689394  c0=4.73554922840395  units=km baseFreq=60 normamps=700  emergamps=700  faultrate=0.1 pctperm=20 repair=3 
New Linecode.1-795_350CN_T          nphases=3 r1=0.074565 x1=0.410229 r0=0.19772  x0=1.07802   c1=10.7471762646949  c0=5.52768990599616  units=km baseFreq=60 normamps=970  emergamps=970  faultrate=0.1 pctperm=20 repair=3 
New Linecode.2-6C_1/0TPXN_T         nphases=3 r1=1.37391  x1=0.483427 r0=1.70293  x0=1.4839    c1=9.02756015623464  c0=4.17036349966078  units=km baseFreq=60 normamps=120  emergamps=120  faultrate=0.1 pctperm=20 repair=3 
New Linecode.3-4/0C_1/0CN_T         nphases=3 r1=0.174481 x1=0.395876 r0=0.452793 x0=1.29345   c1=11.1870805274009  c0=4.60830485140198  units=km baseFreq=60 normamps=480  emergamps=480  faultrate=0.1 pctperm=20 repair=3 
New Linecode.1-4_1/0N_T             nphases=3 r1=0.535622 x1=0.560725 r0=0.851403 x0=1.39746   c1=9.08411321267996  c0=4.99499831146759  units=km baseFreq=60 normamps=260  emergamps=260  faultrate=0.1 pctperm=20 repair=3 
New Linecode.2-4C_1/0TPXN_T         nphases=3 r1=0.863706 x1=0.465904 r0=1.19272  x0=1.46644   c1=9.38077802660325  c0=4.24405223831233  units=km baseFreq=60 normamps=170  emergamps=170  faultrate=0.1 pctperm=20 repair=3 
New Linecode.3-2/0C_1/0CN_V         nphases=3 r1=0.276821 x1=0.43061  r0=0.532577 x0=1.36708   c1=10.3202696556747  c0=4.33848417121352  units=km baseFreq=60 normamps=360  emergamps=360  faultrate=0.1 pctperm=20 repair=3 
New Linecode.1-2/0_2CN_T            nphases=3 r1=0.426882 x1=0.550597 r0=0.76118  x0=1.37553   c1=9.26061604456887  c0=5.00998540194208  units=km baseFreq=60 normamps=300  emergamps=300  faultrate=0.1 pctperm=20 repair=3 
New Linecode.1-795_2N_T             nphases=3 r1=0.074565 x1=0.410229 r0=0.473423 x0=1.34925   c1=10.7471762646949  c0=5.43540656482671  units=km baseFreq=60 normamps=970  emergamps=970  faultrate=0.1 pctperm=20 repair=3 
New Linecode.2-4C_4N_T              nphases=3 r1=0.863706 x1=0.465904 r0=1.27953  x0=1.71113   c1=9.38077802660325  c0=4.21092148432537  units=km baseFreq=60 normamps=170  emergamps=170  faultrate=0.1 pctperm=20 repair=3 
New Linecode.1-477_2CN_T            nphases=3 r1=0.12241  x1=0.430735 r0=0.456708 x0=1.25567   c1=10.2376947660339  c0=5.28277697440159  units=km baseFreq=60 normamps=700  emergamps=700  faultrate=0.1 pctperm=20 repair=3 
New Linecode.2-477_1000CN_T         nphases=3 r1=0.12241  x1=0.365863 r0=0.194738 x0=1.14817   c1=12.1623554928442  c0=4.85274031816728  units=km baseFreq=60 normamps=700  emergamps=700  faultrate=0.1 pctperm=20 repair=3 
New Linecode.3-2C_2CN_OH            nphases=3 r1=0.543513 x1=0.463605 r0=0.899062 x0=1.39119   c1=9.42873671612161  c0=4.46591422898243  units=km baseFreq=60 normamps=220  emergamps=220  faultrate=0.1 pctperm=20 repair=3 
New Linecode.1-2/0C_350CN_T         nphases=3 r1=0.276759 x1=0.48293  r0=0.399914 x0=1.15065   c1=9.14392894545866  c0=5.070464280317    units=km baseFreq=60 normamps=360  emergamps=360  faultrate=0.1 pctperm=20 repair=3 
New Linecode.3-4C_4N_T              nphases=3 r1=0.863706 x1=0.465283 r0=1.28493  x0=1.7074    c1=9.39414704182297  c0=4.24322993777302  units=km baseFreq=60 normamps=170  emergamps=170  faultrate=0.1 pctperm=20 repair=3 
New Linecode.1-4/0C_350CN_T         nphases=3 r1=0.174481 x1=0.46143  r0=0.297637 x0=1.12916   c1=9.52468062098218  c0=5.1853476234055   units=km baseFreq=60 normamps=480  emergamps=480  faultrate=0.1 pctperm=20 repair=3 
New Linecode.2-2C_2CN_OH            nphases=3 r1=0.543513 x1=0.463605 r0=0.899062 x0=1.39119   c1=9.42873671612161  c0=4.46591422898243  units=km baseFreq=60 normamps=220  emergamps=220  faultrate=0.1 pctperm=20 repair=3 
New Linecode.3-4/0C_4/0CN_H         nphases=3 r1=0.174481 x1=0.436327 r0=0.352877 x0=1.13239   c1=10.0992564913678  c0=5.1764614724162   units=km baseFreq=60 normamps=480  emergamps=480  faultrate=0.1 pctperm=20 repair=3 
New Linecode.3-397_795N_T           nphases=3 r1=0.145401 x1=0.368349 r0=0.248362 x0=1.14587   c1=12.0135190952294  c0=4.860326703788    units=km baseFreq=60 normamps=630  emergamps=630  faultrate=0.1 pctperm=20 repair=3 
New Linecode.3-4/0C_2/0CN_V         nphases=3 r1=0.174481 x1=0.409111 r0=0.396311 x0=1.32197   c1=10.8079999787798  c0=4.42946774701439  units=km baseFreq=60 normamps=480  emergamps=480  faultrate=0.1 pctperm=20 repair=3 
New Linecode.1P_1/0ARV_1/0N         nphases=3 r1=0.543576 x1=0.460498 r0=0.916088 x0=1.29693   c1=9.61566419678304  c0=5.08974855425496  units=km baseFreq=60 normamps=321  emergamps=321  faultrate=0.1 pctperm=20 repair=3 
New Linecode.3-2/0C_2/0CN_T         nphases=3 r1=0.276821 x1=0.417499 r0=0.51667  x0=1.287288  c1=10.6652671732326  c0=4.52787324832811  units=km baseFreq=60 normamps=360  emergamps=360  faultrate=0.1 pctperm=20 repair=3 
New Linecode.3-4/0C_2/0CN_T         nphases=3 r1=0.174481 x1=0.395876 r0=0.414392 x0=1.2658    c1=11.1870805274009  c0=4.61918043917993  units=km baseFreq=60 normamps=480  emergamps=480  faultrate=0.1 pctperm=20 repair=3 
New Linecode.3-4/0C_4/0CN_L         nphases=3 r1=0.174481 x1=0.393017 r0=0.343308 x0=1.29699   c1=11.2755972015838  c0=4.36469168517599  units=km baseFreq=60 normamps=480  emergamps=480  faultrate=0.1 pctperm=20 repair=3 
New Linecode.3-795_397N_L           nphases=3 r1=0.074627 x1=0.341816 r0=0.227422 x0=1.22236   c1=13.0304661299389  c0=4.63485720107448  units=km baseFreq=60 normamps=970  emergamps=970  faultrate=0.1 pctperm=20 repair=3 
New Linecode.1-4C_4N_T              nphases=3 r1=0.863706 x1=0.530775 r0=1.263    x0=1.59692   c1=8.19273942806995  c0=4.67785556153314  units=km baseFreq=60 normamps=170  emergamps=170  faultrate=0.1 pctperm=20 repair=3 
New Linecode.3-2/0C_2/0CN_V         nphases=3 r1=0.276821 x1=0.43061  r0=0.498588 x0=1.34347   c1=10.3202696556747  c0=4.34540741123802  units=km baseFreq=60 normamps=360  emergamps=360  faultrate=0.1 pctperm=20 repair=3 
New Linecode.3-2/0_1CN_T            nphases=3 r1=0.426882 x1=0.485105 r0=0.744651 x0=1.41722   c1=10.8256396516392  c0=4.54387362527361  units=km baseFreq=60 normamps=345  emergamps=345  faultrate=0.1 pctperm=20 repair=3 
New Linecode.1P_#6CU_#6N            nphases=3 r1=1.35459  x1=0.52189  r0=1.78787  x0=1.63943   c1=8.33727864222124  c0=4.62692597974373  units=km baseFreq=60 normamps=175  emergamps=175  faultrate=0.1 pctperm=20 repair=3 
New Linecode.3-2/0C_2/0CN_H         nphases=3 r1=0.276821 x1=0.457826 r0=0.519528 x0=1.1939    c1=9.67187241751833  c0=5.03075512201557  units=km baseFreq=60 normamps=360  emergamps=360  faultrate=0.1 pctperm=20 repair=3 
New Linecode.3-4_4N_V               nphases=3 r1=1.35136  x1=0.510022 r0=1.73748  x0=1.74537   c1=9.43714540228163  c0=4.1543949537039   units=km baseFreq=60 normamps=150  emergamps=150  faultrate=0.1 pctperm=20 repair=3 
New Linecode.3-4/0C_2/0CN_H         nphases=3 r1=0.174481 x1=0.436327 r0=0.417313 x0=1.1724    c1=10.0992564913678  c0=5.14399386402545  units=km baseFreq=60 normamps=480  emergamps=480  faultrate=0.1 pctperm=20 repair=3 
New Linecode.2P_#6CU_#6N            nphases=3 r1=1.35459  x1=0.530775 r0=1.78203  x0=1.627     c1=8.19273942806995  c0=4.68231189993971  units=km baseFreq=60 normamps=175  emergamps=175  faultrate=0.1 pctperm=20 repair=3 
New Linecode.3-4/0C_4/0CN_V         nphases=3 r1=0.174481 x1=0.409111 r0=0.340387 x0=1.28879   c1=10.8079999787798  c0=4.44546281879512  units=km baseFreq=60 normamps=480  emergamps=480  faultrate=0.1 pctperm=20 repair=3 
New Linecode.3-2/0C_2/0CN_L         nphases=3 r1=0.276821 x1=0.414517 r0=0.503373 x0=1.35328   c1=10.7460091284455  c0=4.26614824957826  units=km baseFreq=60 normamps=360  emergamps=360  faultrate=0.1 pctperm=20 repair=3 
New Linecode.2-4_1/0N_H             nphases=3 r1=1.35136  x1=0.492499 r0=1.69317  x0=1.47806   c1=9.82219426126862  c0=4.39222549033088  units=km baseFreq=60 normamps=150  emergamps=150  faultrate=0.1 pctperm=20 repair=3 
New Linecode.3-4/0C_2/0CN_L         nphases=3 r1=0.174481 x1=0.393017 r0=0.401219 x0=1.33178   c1=11.2755972015838  c0=4.34723769308358  units=km baseFreq=60 normamps=480  emergamps=480  faultrate=0.1 pctperm=20 repair=3 
New Linecode.3-4/0C_4/0CN_T         nphases=3 r1=0.174481 x1=0.395876 r0=0.351199 x0=1.22665   c1=11.1870805274009  c0=4.64323936141065  units=km baseFreq=60 normamps=480  emergamps=480  faultrate=0.1 pctperm=20 repair=3 
New Linecode.2-1/0_2/0N_T           nphases=3 r1=0.535622 x1=0.495854 r0=0.827791 x0=1.45643   c1=10.5693206157897  c0=4.48156446505314  units=km baseFreq=60 normamps=260  emergamps=260  faultrate=0.1 pctperm=20 repair=3 
New Linecode.2-4C_1/0TPXN_H         nphases=3 r1=0.863706 x1=0.482681 r0=1.20329  x0=1.4084    c1=9.04156579122673  c0=4.50710883341938  units=km baseFreq=60 normamps=170  emergamps=170  faultrate=0.1 pctperm=20 repair=3 
New Linecode.3P_#6CU_#6N            nphases=3 r1=1.35459  x1=0.4966   r0=1.78402  x0=1.69361   c1=8.77850919611967  c0=4.36288792915428  units=km baseFreq=60 normamps=175  emergamps=175  faultrate=0.1 pctperm=20 repair=3 
New Linecode.2-2/0_2/0N_OH          nphases=3 r1=0.426882 x1=0.500887 r0=0.72427  x0=1.40007   c1=10.4005367986407  c0=4.73340063667221  units=km baseFreq=60 normamps=300  emergamps=300  faultrate=0.1 pctperm=20 repair=3 
New Linecode.3-2/0C_1/0CN_L         nphases=3 r1=0.276821 x1=0.414517 r0=0.538604 x0=1.37795   c1=10.7460091284455  c0=4.2583761831906   units=km baseFreq=60 normamps=360  emergamps=360  faultrate=0.1 pctperm=20 repair=3 
New Linecode.3-1/0_2/0N_T           nphases=3 r1=0.535622 x1=0.495233 r0=0.831457 x0=1.44686   c1=10.5864828238198  c0=4.52061047775835  units=km baseFreq=60 normamps=260  emergamps=260  faultrate=0.1 pctperm=20 repair=3 
New Linecode.3-2_4/0N_T             nphases=3 r1=1.01016  x1=0.500017 r0=1.28127  x0=1.41033   c1=10.1280900618912  c0=4.45318183353508  units=km baseFreq=60 normamps=200  emergamps=200  faultrate=0.1 pctperm=20 repair=3 
New Linecode.3-4/0C_1/0CN_L         nphases=3 r1=0.174481 x1=0.393017 r0=0.436389 x0=1.35645   c1=11.2755972015838  c0=4.33930647175283  units=km baseFreq=60 normamps=480  emergamps=480  faultrate=0.1 pctperm=20 repair=3 
New Linecode.2-4/0_2/0N_OH          nphases=3 r1=0.269675 x1=0.465593 r0=0.567188 x0=1.36478   c1=10.8696459934041  c0=4.82817740528343  units=km baseFreq=60 normamps=380  emergamps=380  faultrate=0.1 pctperm=20 repair=3 
New Linecode.3-2/0C_1/0CN_H         nphases=3 r1=0.276821 x1=0.457826 r0=0.558613 x0=1.22217   c1=9.67187241751833  c0=5.01659033208039  units=km baseFreq=60 normamps=360  emergamps=360  faultrate=0.1 pctperm=20 repair=3 
New Linecode.2-397_4/0N_T           nphases=3 r1=0.145401 x1=0.36897  r0=0.369902 x0=1.2666    c1=11.9911047740773  c0=4.74165016788914  units=km baseFreq=60 normamps=630  emergamps=630  faultrate=0.1 pctperm=20 repair=3 
New Linecode.3-4/0C_1/0CN_H         nphases=3 r1=0.174481 x1=0.436327 r0=0.456273 x0=1.20068   c1=10.0992564913678  c0=5.12916592849406  units=km baseFreq=60 normamps=480  emergamps=480  faultrate=0.1 pctperm=20 repair=3 
New Linecode.1-1/0_2/0N_T           nphases=3 r1=0.535622 x1=0.560725 r0=0.816482 x0=1.36037   c1=9.08509466816236  c0=5.00587389924554  units=km baseFreq=60 normamps=260  emergamps=260  faultrate=0.1 pctperm=20 repair=3 
New Linecode.1-2_4/0N_T             nphases=3 r1=1.01016  x1=0.56551  r0=1.26785  x0=1.32731   c1=8.74389299599718  c0=4.91918750690815  units=km baseFreq=60 normamps=200  emergamps=200  faultrate=0.1 pctperm=20 repair=3 
New Linecode.3-397_4/0N_T           nphases=3 r1=0.145401 x1=0.368287 r0=0.372388 x0=1.2556    c1=12.01235195898    c0=4.78682364590339  units=km baseFreq=60 normamps=630  emergamps=630  faultrate=0.1 pctperm=20 repair=3 
New Linecode.2-2_T                  nphases=3 r1=0.849849 x1=0.312239 r0=1.02769  x0=2.40856   c1=18.5753182439651  c0=4.47002573167897  units=km baseFreq=60 normamps=200  emergamps=200  faultrate=0.1 pctperm=20 repair=3 
New Linecode.3-1/0_397N_T           nphases=3 r1=0.535622 x1=0.495233 r0=0.695128 x0=1.30009   c1=10.5864828238198  c0=4.57188489525779  units=km baseFreq=60 normamps=260  emergamps=260  faultrate=0.1 pctperm=20 repair=3 
New Linecode.1-397_4/0N_T           nphases=3 r1=0.145401 x1=0.433779 r0=0.362197 x0=1.17489   c1=10.1154107180916  c0=5.32874622713129  units=km baseFreq=60 normamps=630  emergamps=630  faultrate=0.1 pctperm=20 repair=3 
New Linecode.2-1/0_350CN_T          nphases=3 r1=0.535622 x1=0.495854 r0=0.661077 x0=1.3147    c1=10.5693206157897  c0=4.52490766122183  units=km baseFreq=60 normamps=260  emergamps=260  faultrate=0.1 pctperm=20 repair=3 
New Linecode.2-1/0_1/0N_T           nphases=3 r1=0.535622 x1=0.495916 r0=0.864576 x0=1.49626   c1=10.5684983152504  c0=4.47116634210447  units=km baseFreq=60 normamps=260  emergamps=260  faultrate=0.1 pctperm=20 repair=3 
New Linecode.3-2C_795N_T            nphases=3 r1=0.543513 x1=0.447822 r0=0.646475 x0=1.22541   c1=9.77702078325438  c0=4.44859286600926  units=km baseFreq=60 normamps=220  emergamps=220  faultrate=0.1 pctperm=20 repair=3 
New Linecode.2-1/0C_1/0CN_T         nphases=3 r1=0.3489   x1=0.42682  r0=0.623794 x0=1.33439   c1=10.4135609781504  c0=4.43689497769201  units=km baseFreq=60 normamps=310  emergamps=310  faultrate=0.1 pctperm=20 repair=3 
New Linecode.2-477_4/0N_T           nphases=3 r1=0.12241  x1=0.365863 r0=0.362135 x0=1.23473   c1=12.1623554928442  c0=4.76852082744782  units=km baseFreq=60 normamps=700  emergamps=700  faultrate=0.1 pctperm=20 repair=3 
New Linecode.2-1/0C_1/0CN_V         nphases=3 r1=0.3489   x1=0.439309 r0=0.604718 x0=1.37578   c1=10.0995748012539  c0=4.29893416785519  units=km baseFreq=60 normamps=310  emergamps=310  faultrate=0.1 pctperm=20 repair=3 
New Linecode.3-1/0_1/0N_T           nphases=3 r1=0.535622 x1=0.495171 r0=0.868863 x0=1.4875    c1=10.5851565326273  c0=4.50957573503731  units=km baseFreq=60 normamps=260  emergamps=260  faultrate=0.1 pctperm=20 repair=3 
New Linecode.3-477_4/0N_T           nphases=3 r1=0.12241  x1=0.365242 r0=0.364993 x0=1.22317   c1=12.1849289689394  c0=4.81401261534826  units=km baseFreq=60 normamps=700  emergamps=700  faultrate=0.1 pctperm=20 repair=3 
New Linecode.1-2C_1/0N_T            nphases=3 r1=0.543513 x1=0.513315 r0=0.88707  x0=1.33172   c1=8.48232184702566  c0=4.80740768520994  units=km baseFreq=60 normamps=220  emergamps=220  faultrate=0.1 pctperm=20 repair=3 
New Linecode.2-1/0_1000CN_T         nphases=3 r1=0.535622 x1=0.495854 r0=0.60795  x0=1.27816   c1=10.5693206157897  c0=4.57748184408985  units=km baseFreq=60 normamps=260  emergamps=260  faultrate=0.1 pctperm=20 repair=3 
New Linecode.3-1/0C_397N_T          nphases=3 r1=0.3489   x1=0.426198 r0=0.508406 x0=1.23106   c1=10.4308823411236  c0=4.54254733408118  units=km baseFreq=60 normamps=310  emergamps=310  faultrate=0.1 pctperm=20 repair=3 
New Linecode.3-397_500CN_T          nphases=3 r1=0.145401 x1=0.368349 r0=0.248051 x0=1.16091   c1=12.0135190952294  c0=4.83032599701518  units=km baseFreq=60 normamps=630  emergamps=630  faultrate=0.1 pctperm=20 repair=3 
New Linecode.2-2/0_500N_T           nphases=3 r1=0.426882 x1=0.485726 r0=0.574458 x0=1.28189   c1=10.8078408238367  c0=4.58225649238261  units=km baseFreq=60 normamps=300  emergamps=300  faultrate=0.1 pctperm=20 repair=3 
New Linecode.2-4_4N_V               nphases=3 r1=1.35136  x1=0.510022 r0=1.73748  x0=1.74537   c1=9.43714540228163  c0=4.1543949537039   units=km baseFreq=60 normamps=150  emergamps=150  faultrate=0.1 pctperm=20 repair=3 
New Linecode.3-2/0C_500CN_T         nphases=3 r1=0.276759 x1=0.417437 r0=0.378663 x0=1.21099   c1=10.6664051310757  c0=4.59644780814163  units=km baseFreq=60 normamps=360  emergamps=360  faultrate=0.1 pctperm=20 repair=3 
New Linecode.3-4C_397N_T            nphases=3 r1=0.863706 x1=0.465283 r0=1.02321  x0=1.27014   c1=9.39414704182297  c0=4.33437266851698  units=km baseFreq=60 normamps=170  emergamps=170  faultrate=0.1 pctperm=20 repair=3 
New Linecode.1-1/0_1/0N_T           nphases=3 r1=0.535622 x1=0.560725 r0=0.851403 x0=1.39746   c1=9.08411321267996  c0=4.99499831146759  units=km baseFreq=60 normamps=260  emergamps=260  faultrate=0.1 pctperm=20 repair=3 
New Linecode.1-2_1/03WCSN_T         nphases=3 r1=0.849849 x1=0.56551  r0=1.16569  x0=1.40243   c1=8.75511341948516  c0=4.89396144842808  units=km baseFreq=60 normamps=200  emergamps=200  faultrate=0.1 pctperm=20 repair=3 
New Linecode.3-4/0C_500CN_T         nphases=3 r1=0.174481 x1=0.395938 r0=0.276386 x0=1.18943   c1=11.1882476636502  c0=4.69072058609973  units=km baseFreq=60 normamps=480  emergamps=480  faultrate=0.1 pctperm=20 repair=3 
New Linecode.1-477_4/0N_T           nphases=3 r1=0.12241  x1=0.430735 r0=0.353312 x0=1.14457   c1=10.2376947660339  c0=5.36238097177138  units=km baseFreq=60 normamps=700  emergamps=700  faultrate=0.1 pctperm=20 repair=3 
New Linecode.3-795_500CN_T          nphases=3 r1=0.074565 x1=0.344799 r0=0.177215 x0=1.13736   c1=12.9136198758856  c0=4.96961309804443  units=km baseFreq=60 normamps=970  emergamps=970  faultrate=0.1 pctperm=20 repair=3 
New Linecode.3-2/0_500N_T           nphases=3 r1=0.426882 x1=0.485105 r0=0.5757   x0=1.26865   c1=10.8256396516392  c0=4.62610367920442  units=km baseFreq=60 normamps=300  emergamps=300  faultrate=0.1 pctperm=20 repair=3 
New Linecode.3-2C_1/0N_T            nphases=3 r1=0.543513 x1=0.447822 r0=0.90714  x0=1.42052   c1=9.77702078325438  c0=4.35628299901597  units=km baseFreq=60 normamps=220  emergamps=220  faultrate=0.1 pctperm=20 repair=3 
New Linecode.1-2_2CN_T              nphases=3 r1=0.849849 x1=0.56551  r0=1.18415  x0=1.39044   c1=8.75511341948516  c0=4.85833726699935  units=km baseFreq=60 normamps=200  emergamps=200  faultrate=0.1 pctperm=20 repair=3 
New Linecode.1-4_1/03WCSN_T         nphases=3 r1=0.535622 x1=0.560725 r0=0.851403 x0=1.39746   c1=9.08411321267996  c0=4.99499831146759  units=km baseFreq=60 normamps=260  emergamps=260  faultrate=0.1 pctperm=20 repair=3 
New Linecode.2-4/0_6CN_T            nphases=3 r1=0.269675 x1=0.450494 r0=0.688106 x0=1.70076   c1=11.3149880499991  c0=4.52854169908909  units=km baseFreq=60 normamps=380  emergamps=380  faultrate=0.1 pctperm=20 repair=3 
New Linecode.2-2C_1/0N_T            nphases=3 r1=0.543513 x1=0.448506 r0=0.902231 x0=1.42959   c1=9.76235200266607  c0=4.32052618846799  units=km baseFreq=60 normamps=220  emergamps=220  faultrate=0.1 pctperm=20 repair=3 
New Linecode.3-2C_4CN_OH            nphases=3 r1=0.543513 x1=0.463605 r0=0.959956 x0=1.51708   c1=9.42873671612161  c0=4.44479967319891  units=km baseFreq=60 normamps=220  emergamps=220  faultrate=0.1 pctperm=20 repair=3 
New Linecode.3-4_4N_OH              nphases=3 r1=1.35136  x1=0.512569 r0=1.77507  x0=1.70498   c1=9.38112286231329  c0=4.45222690387653  units=km baseFreq=60 normamps=150  emergamps=150  faultrate=0.1 pctperm=20 repair=3 
New Linecode.3-4/0_6CN_T            nphases=3 r1=0.269675 x1=0.449811 r0=0.693512 x0=1.69715   c1=11.3344314788801  c0=4.56445766458016  units=km baseFreq=60 normamps=380  emergamps=380  faultrate=0.1 pctperm=20 repair=3 
New Linecode.1-2/0_500N_T           nphases=3 r1=0.426882 x1=0.550597 r0=0.570605 x0=1.19682   c1=9.26061604456887  c0=5.12123470716331  units=km baseFreq=60 normamps=300  emergamps=300  faultrate=0.1 pctperm=20 repair=3 
New Linecode.2-2C_4CN_OH            nphases=3 r1=0.543513 x1=0.463605 r0=0.959956 x0=1.51708   c1=9.42873671612161  c0=4.44479967319891  units=km baseFreq=60 normamps=220  emergamps=220  faultrate=0.1 pctperm=20 repair=3 
New Linecode.2-4_4N_OH              nphases=3 r1=1.35136  x1=0.512569 r0=1.77507  x0=1.70498   c1=9.38112286231329  c0=4.45222690387653  units=km baseFreq=60 normamps=150  emergamps=150  faultrate=0.1 pctperm=20 repair=3 
New Linecode.3-2_2CN_T              nphases=3 r1=0.849849 x1=0.500017 r0=1.20335  x0=1.47967   c1=10.1411142414009  c0=4.39156234473467  units=km baseFreq=60 normamps=200  emergamps=200  faultrate=0.1 pctperm=20 repair=3 
New Linecode.3-2_2N_L               nphases=3 r1=0.849849 x1=0.497097 r0=1.22516  x0=1.64645   c1=10.2128135432638  c0=4.16296279480701  units=km baseFreq=60 normamps=200  emergamps=200  faultrate=0.1 pctperm=20 repair=3 
New Linecode.1-2C_500CN_T           nphases=3 r1=0.543513 x1=0.513315 r0=0.644113 x0=1.16923   c1=8.48232184702566  c0=4.87366919318387  units=km baseFreq=60 normamps=220  emergamps=220  faultrate=0.1 pctperm=20 repair=3 
New Linecode.1-4/0_6CN_T            nphases=3 r1=0.269675 x1=0.515303 r0=0.671392 x0=1.58617   c1=9.63049213231444  c0=5.07905864724396  units=km baseFreq=60 normamps=380  emergamps=380  faultrate=0.1 pctperm=20 repair=3 
New Linecode.2-397_2/0N_T           nphases=3 r1=0.145401 x1=0.36897  r0=0.437507 x0=1.32936   c1=11.9911047740773  c0=4.71857270114082  units=km baseFreq=60 normamps=630  emergamps=630  faultrate=0.1 pctperm=20 repair=3 
New Linecode.3-2_4N_L               nphases=3 r1=0.849849 x1=0.497097 r0=1.24548  x0=1.7719    c1=10.2128135432638  c0=4.1494346246442   units=km baseFreq=60 normamps=200  emergamps=200  faultrate=0.1 pctperm=20 repair=3 
New Linecode.1-4/0C_500N_T          nphases=3 r1=0.174481 x1=0.46143  r0=0.318204 x0=1.10766   c1=9.52468062098218  c0=5.20102438530005  units=km baseFreq=60 normamps=480  emergamps=480  faultrate=0.1 pctperm=20 repair=3 
New Linecode.3-2_T                  nphases=3 r1=0.849849 x1=0.307827 r0=1.02769  x0=2.41738   c1=18.9468389327893  c0=4.43904356942375  units=km baseFreq=60 normamps=200  emergamps=200  faultrate=0.1 pctperm=20 repair=3 
New Linecode.3-2C_500CN_T           nphases=3 r1=0.543513 x1=0.447822 r0=0.645418 x0=1.24138   c1=9.77702078325438  c0=4.42304849764302  units=km baseFreq=60 normamps=220  emergamps=220  faultrate=0.1 pctperm=20 repair=3 
New Linecode.3-397_2/0N_T           nphases=3 r1=0.145401 x1=0.368287 r0=0.441173 x0=1.31979   c1=12.01235195898    c0=4.76191589730951  units=km baseFreq=60 normamps=630  emergamps=630  faultrate=0.1 pctperm=20 repair=3 
New Linecode.1-2/0C_500N_T          nphases=3 r1=0.276759 x1=0.48293  r0=0.420482 x0=1.12922   c1=9.14392894545866  c0=5.08531874167224  units=km baseFreq=60 normamps=360  emergamps=360  faultrate=0.1 pctperm=20 repair=3 
New Linecode.2-1/0C_1/0CN_H         nphases=3 r1=0.3489   x1=0.443597 r0=0.632307 x0=1.27157   c1=9.99689333713583  c0=4.72416964997288  units=km baseFreq=60 normamps=310  emergamps=310  faultrate=0.1 pctperm=20 repair=3 
New Linecode.3-397BB_2/0_BUN        nphases=3 r1=0.090223 x1=0.205053 r0=0.422222 x0=1.16513   c1=12.01235195898    c0=4.76191589730951  units=km baseFreq=60 normamps=630  emergamps=630  faultrate=0.1 pctperm=20 repair=3 
New Linecode.2-4_T                  nphases=3 r1=1.3513   x1=0.309008 r0=1.52913  x0=2.40533   c1=17.2272228243291  c0=4.38745084203813  units=km baseFreq=60 normamps=150  emergamps=150  faultrate=0.1 pctperm=20 repair=3 
New Linecode.1-397_2/0N_T           nphases=3 r1=0.145401 x1=0.433779 r0=0.426198 x0=1.23336   c1=10.1154107180916  c0=5.30354669447508  units=km baseFreq=60 normamps=630  emergamps=630  faultrate=0.1 pctperm=20 repair=3 
New Linecode.3-2C_2/0N_T            nphases=3 r1=0.543513 x1=0.447822 r0=0.839348 x0=1.39945   c1=9.77702078325438  c0=4.3663362862546   units=km baseFreq=60 normamps=220  emergamps=220  faultrate=0.1 pctperm=20 repair=3 
New Linecode.2-397_397N_T           nphases=3 r1=0.145401 x1=0.36897  r0=0.303478 x0=1.18589   c1=11.9911047740773  c0=4.77165087466196  units=km baseFreq=60 normamps=630  emergamps=630  faultrate=0.1 pctperm=20 repair=3 
New Linecode.2-477_2/0N_T           nphases=3 r1=0.12241  x1=0.365863 r0=0.414517 x0=1.32644   c1=12.1623554928442  c0=4.74512505081331  units=km baseFreq=60 normamps=700  emergamps=700  faultrate=0.1 pctperm=20 repair=3 
New Linecode.1-1/0A_4CN_T           nphases=3 r1=0.535622 x1=0.560725 r0=0.926899 x0=1.49993   c1=9.08509466816236  c0=4.94008985610089  units=km baseFreq=60 normamps=260  emergamps=260  faultrate=0.1 pctperm=20 repair=3 
New Linecode.3-397_397N_T           nphases=3 r1=0.145401 x1=0.368287 r0=0.304907 x0=1.17309   c1=12.01235195898    c0=4.8189464185841   units=km baseFreq=60 normamps=630  emergamps=630  faultrate=0.1 pctperm=20 repair=3 
New Linecode.3-477_2/0N_T           nphases=3 r1=0.12241  x1=0.365242 r0=0.418245 x0=1.31687   c1=12.1849289689394  c0=4.78894571181128  units=km baseFreq=60 normamps=700  emergamps=700  faultrate=0.1 pctperm=20 repair=3 
New Linecode.2-397_4/0N_H           nphases=3 r1=0.145401 x1=0.385685 r0=0.376116 x0=1.20297   c1=11.4417284363479  c0=5.0772283653984   units=km baseFreq=60 normamps=630  emergamps=630  faultrate=0.1 pctperm=20 repair=3 
New Linecode.1-6C_4CN_T             nphases=3 r1=1.37391  x1=0.548298 r0=1.76519  x0=1.4875    c1=7.92209644734218  c0=4.57501494247193  units=km baseFreq=60 normamps=120  emergamps=120  faultrate=0.1 pctperm=20 repair=3 
New Linecode.2-397_1/0N_T           nphases=3 r1=0.145401 x1=0.36897  r0=0.504118 x0=1.35005   c1=11.9915822389066  c0=4.70785626830596  units=km baseFreq=60 normamps=630  emergamps=630  faultrate=0.1 pctperm=20 repair=3 
New Linecode.3-397_4/0N_H           nphases=3 r1=0.145401 x1=0.408676 r0=0.374873 x0=1.16246   c1=10.766964529286   c0=5.35577604163307  units=km baseFreq=60 normamps=630  emergamps=630  faultrate=0.1 pctperm=20 repair=3 
New Linecode.3P_3/0ACSR_1/0N        nphases=3 r1=0.339331 x1=0.48672  r0=0.676673 x0=1.42822   c1=10.6853710951275  c0=4.87252858275838  units=km baseFreq=60 normamps=1    emergamps=1    faultrate=0.1 pctperm=20 repair=3 
New Linecode.1-397_397N_T           nphases=3 r1=0.145401 x1=0.433779 r0=0.29919  x0=1.09945   c1=10.1154107180916  c0=5.36089552563586  units=km baseFreq=60 normamps=630  emergamps=630  faultrate=0.1 pctperm=20 repair=3 
New Linecode.1-477_2/0N_T           nphases=3 r1=0.12241  x1=0.430735 r0=0.40327  x0=1.23038   c1=10.2376947660339  c0=5.33699575834822  units=km baseFreq=60 normamps=700  emergamps=700  faultrate=0.1 pctperm=20 repair=3 
New Linecode.3-397_1/0N_T           nphases=3 r1=0.145401 x1=0.355176 r0=0.480196 x0=1.38348   c1=12.4820977735158  c0=4.62512222372203  units=km baseFreq=60 normamps=630  emergamps=630  faultrate=0.1 pctperm=20 repair=3 
New Linecode.2-4/0_4CN_T            nphases=3 r1=0.269675 x1=0.450494 r0=0.678102 x0=1.56057   c1=11.3149880499991  c0=4.54535907140914  units=km baseFreq=60 normamps=380  emergamps=380  faultrate=0.1 pctperm=20 repair=3 
New Linecode.2-4_2/0N_T             nphases=3 r1=1.3513   x1=0.49747  r0=1.64346  x0=1.45805   c1=9.71142242087667  c0=4.31986304287177  units=km baseFreq=60 normamps=150  emergamps=150  faultrate=0.1 pctperm=20 repair=3 
New Linecode.3-6C_4CN_T             nphases=3 r1=1.37391  x1=0.482805 r0=1.78793  x0=1.58711   c1=9.0400803450912   c0=4.15588039983942  units=km baseFreq=60 normamps=120  emergamps=120  faultrate=0.1 pctperm=20 repair=3 
New Linecode.1-397_1/0N_T           nphases=3 r1=0.145401 x1=0.433779 r0=0.488957 x0=1.25219   c1=10.116392173574   c0=5.29182228033397  units=km baseFreq=60 normamps=630  emergamps=630  faultrate=0.1 pctperm=20 repair=3 
New Linecode.2-6C_4CN_T             nphases=3 r1=1.37391  x1=0.483427 r0=1.78234  x0=1.59351   c1=9.02756015623464  c0=4.12553485735657  units=km baseFreq=60 normamps=120  emergamps=120  faultrate=0.1 pctperm=20 repair=3 
New Linecode.3-397_2/0V3BTOP        nphases=3 r1=0.179825 x1=0.350516 r0=0.470316 x0=1.56374   c1=12.01235195898    c0=4.8189464185841   units=km baseFreq=60 normamps=630  emergamps=630  faultrate=0.1 pctperm=20 repair=3 
New Linecode.3-4/0_4CN_T            nphases=3 r1=0.269675 x1=0.44981  r0=0.683694 x0=1.55417   c1=11.3344314788801  c0=4.58244217314955  units=km baseFreq=60 normamps=380  emergamps=380  faultrate=0.1 pctperm=20 repair=3 
New Linecode.3-4_2/0N_T             nphases=3 r1=1.3513   x1=0.496786 r0=1.64713  x0=1.44842   c1=9.72577289157878  c0=4.35612384407287  units=km baseFreq=60 normamps=150  emergamps=150  faultrate=0.1 pctperm=20 repair=3 
New Linecode.3P_336ACSR_2/0N        nphases=3 r1=0.169572 x1=0.380901 r0=0.468887 x0=1.28077   c1=11.4840901770342  c0=5.04542390260387  units=km baseFreq=60 normamps=655  emergamps=655  faultrate=0.1 pctperm=20 repair=3 
New Linecode.2-4/0C_1/0CN_V         nphases=3 r1=0.174481 x1=0.409111 r0=0.4303   x0=1.34558   c1=10.8079999787798  c0=4.4223853520468   units=km baseFreq=60 normamps=480  emergamps=480  faultrate=0.1 pctperm=20 repair=3 
New Linecode.2-477_1/0N_T           nphases=3 r1=0.12241  x1=0.365863 r0=0.481128 x0=1.34695   c1=12.1623554928442  c0=4.73390462732534  units=km baseFreq=60 normamps=700  emergamps=700  faultrate=0.1 pctperm=20 repair=3 
New Linecode.3-6C_4WPCN_T           nphases=3 r1=1.37391  x1=0.482805 r0=1.78793  x0=1.58711   c1=9.0400803450912   c0=4.15588039983942  units=km baseFreq=60 normamps=120  emergamps=120  faultrate=0.1 pctperm=20 repair=3 
New Linecode.2-2/0C_1/0CN_T         nphases=3 r1=0.276821 x1=0.418121 r0=0.551591 x0=1.3257    c1=10.6482879933871  c0=4.47875272772518  units=km baseFreq=60 normamps=360  emergamps=360  faultrate=0.1 pctperm=20 repair=3 
New Linecode.2-4/0C_1/0CN_T         nphases=3 r1=0.174481 x1=0.396621 r0=0.449376 x0=1.3042    c1=11.1684593990591  c0=4.56841001233361  units=km baseFreq=60 normamps=480  emergamps=480  faultrate=0.1 pctperm=20 repair=3 
New Linecode.1-1/0A_1/0A_T          nphases=3 r1=0.3489   x1=0.491691 r0=0.613107 x0=1.241561  c1=8.96939698228171  c0=4.95311934077534  units=km baseFreq=60 normamps=310  emergamps=310  faultrate=0.1 pctperm=20 repair=3 
...
